data_image0
_chemical_formula_structural       O40Si20
_chemical_formula_sum              "O40 Si20"
_cell_length_a       10.7413
_cell_length_b       6.2842
_cell_length_c       11.1321
_cell_angle_alpha    90
_cell_angle_beta     90
_cell_angle_gamma    90

_space_group_name_H-M_alt    "P 1"
_space_group_IT_number       1

loop_
  _space_group_symop_operation_xyz
  'x, y, z'

loop_
  _atom_site_type_symbol
  _atom_site_label
  _atom_site_symmetry_multiplicity
  _atom_site_fract_x
  _atom_site_fract_y
  _atom_site_fract_z
  _atom_site_occupancy
  O   O1        1.0  0.25000  0.50317  0.25000  1.0000
  O   O2        1.0  0.25000  0.49683  0.75000  1.0000
  O   O3        1.0  0.75000  0.49683  0.75000  1.0000
  O   O4        1.0  0.75000  0.50317  0.25000  1.0000
  O   O5        1.0  0.19422  0.50000  0.00000  1.0000
  O   O6        1.0  0.30578  0.50000  0.50000  1.0000
  O   O7        1.0  0.80578  0.50000  0.00000  1.0000
  O   O8        1.0  0.69422  0.50000  0.50000  1.0000
  O   O9        1.0  0.00000  0.52888  0.15902  1.0000
  O   O10       1.0  0.50000  0.47112  0.65902  1.0000
  O   O11       1.0  0.50000  0.52888  0.34098  1.0000
  O   O12       1.0  0.00000  0.47112  0.84098  1.0000
  O   O13       1.0  0.12860  0.18960  0.13079  1.0000
  O   O14       1.0  0.37140  0.81040  0.63079  1.0000
  O   O15       1.0  0.37140  0.18960  0.36921  1.0000
  O   O16       1.0  0.12860  0.81040  0.86921  1.0000
  O   O17       1.0  0.87140  0.81040  0.86921  1.0000
  O   O18       1.0  0.62860  0.18960  0.36921  1.0000
  O   O19       1.0  0.62860  0.81040  0.63079  1.0000
  O   O20       1.0  0.87140  0.18960  0.13079  1.0000
  O   O21       1.0  0.25000  0.90960  0.25000  1.0000
  O   O22       1.0  0.25000  0.09040  0.75000  1.0000
  O   O23       1.0  0.75000  0.09040  0.75000  1.0000
  O   O24       1.0  0.75000  0.90960  0.25000  1.0000
  O   O25       1.0  0.50000  0.90623  0.24756  1.0000
  O   O26       1.0  0.00000  0.09377  0.74756  1.0000
  O   O27       1.0  0.00000  0.90623  0.25244  1.0000
  O   O28       1.0  0.50000  0.09377  0.75244  1.0000
  O   O29       1.0  0.38007  0.21513  0.14207  1.0000
  O   O30       1.0  0.11993  0.78487  0.64207  1.0000
  O   O31       1.0  0.11993  0.21513  0.35793  1.0000
  O   O32       1.0  0.38007  0.78487  0.85793  1.0000
  O   O33       1.0  0.61993  0.78487  0.85793  1.0000
  O   O34       1.0  0.88007  0.21513  0.35793  1.0000
  O   O35       1.0  0.88007  0.78487  0.64207  1.0000
  O   O36       1.0  0.61993  0.21513  0.14207  1.0000
  O   O37       1.0  0.50000  0.00000  0.00000  1.0000
  O   O38       1.0  0.00000  0.00000  0.50000  1.0000
  O   O39       1.0  0.50000  0.50000  0.00000  1.0000
  O   O40       1.0  0.00000  0.50000  0.50000  1.0000
  Si  Si1       1.0  0.14590  0.44412  0.13767  1.0000
  Si  Si2       1.0  0.35410  0.55588  0.63767  1.0000
  Si  Si3       1.0  0.35410  0.44412  0.36233  1.0000
  Si  Si4       1.0  0.14590  0.55588  0.86233  1.0000
  Si  Si5       1.0  0.85410  0.55588  0.86233  1.0000
  Si  Si6       1.0  0.64590  0.44412  0.36233  1.0000
  Si  Si7       1.0  0.64590  0.55588  0.63767  1.0000
  Si  Si8       1.0  0.85410  0.44412  0.13767  1.0000
  Si  Si9       1.0  0.37509  0.04842  0.25000  1.0000
  Si  Si10      1.0  0.12491  0.95158  0.75000  1.0000
  Si  Si11      1.0  0.12491  0.04842  0.25000  1.0000
  Si  Si12      1.0  0.37509  0.95158  0.75000  1.0000
  Si  Si13      1.0  0.62491  0.95158  0.75000  1.0000
  Si  Si14      1.0  0.87509  0.04842  0.25000  1.0000
  Si  Si15      1.0  0.87509  0.95158  0.75000  1.0000
  Si  Si16      1.0  0.62491  0.04842  0.25000  1.0000
  Si  Si17      1.0  0.50000  0.24513  0.05925  1.0000
  Si  Si18      1.0  0.00000  0.75487  0.55925  1.0000
  Si  Si19      1.0  0.00000  0.24513  0.44075  1.0000
  Si  Si20      1.0  0.50000  0.75487  0.94075  1.0000
